NW11_EXP_VOLTAGES.CSV
Bus, BasekV, Node1, Magnitude1, Angle1, pu1, Node2, Magnitude2, Angle2, pu2, Node3, Magnitude3, Angle3, pu3
"SNW_NW11_9023_BSB006", 13.8, 1,    7957.71,   -0.1,   0.99878, 2,    7957.71, -120.1,   0.99878, 3,    7957.71,  119.9,   0.99878
"SNW_NW11_9188_BSB005", 13.8, 1,    7954.01,   -0.1,   0.99832, 2,    7954.01, -120.1,   0.99832, 3,    7954.01,  119.9,   0.99832
"SNW_NW11_9189_BSB005", 13.8, 1,    7954.01,   -0.1,   0.99832, 2,    7954.01, -120.1,   0.99832, 3,    7954.01,  119.9,   0.99832
"SNW_NW11_9062_BSB005", 13.8, 1,    7954.07,   -0.1,   0.99832, 2,    7954.07, -120.1,   0.99832, 3,    7954.07,  119.9,   0.99832
"SNW_NW11_9063_BSB005", 13.8, 1,    7954.06,   -0.1,   0.99832, 2,    7954.06, -120.1,   0.99832, 3,    7954.06,  119.9,   0.99832
"SNW_NW11_9075_BSB006", 13.8, 1,    7955.23,   -0.1,   0.99847, 2,    7955.23, -120.1,   0.99847, 3,    7955.23,  119.9,   0.99847
"SNW_NW11_9076_BSB006", 13.8, 1,    7955.22,   -0.1,   0.99847, 2,    7955.22, -120.1,   0.99847, 3,    7955.22,  119.9,   0.99847
"SNW_NW11_9307_BSB007", 13.8, 1,    7954.96,   -0.1,   0.99843, 2,    7954.96, -120.1,   0.99843, 3,    7954.96,  119.9,   0.99843
"SNW_NW11_9309_BSB007", 13.8, 1,    7954.96,   -0.1,   0.99843, 2,    7954.96, -120.1,   0.99843, 3,    7954.96,  119.9,   0.99843
"SNW_NW11_9391_BSB005", 13.8, 1,    7954.01,   -0.1,   0.99832, 2,    7954.01, -120.1,   0.99832, 3,    7954.01,  119.9,   0.99832
"SNW_NW11_9392_BSB005", 13.8, 1,    7954.01,   -0.1,   0.99832, 2,    7954.01, -120.1,   0.99832, 3,    7954.01,  119.9,   0.99832
"SNW_NW11_9393_BSB005", 13.8, 1,    7954.01,   -0.1,   0.99832, 2,    7954.01, -120.1,   0.99832, 3,    7954.01,  119.9,   0.99832
"SNW_NW11_9394_BSB005", 13.8, 1,    7954.01,   -0.1,   0.99831, 2,    7954.01, -120.1,   0.99831, 3,    7954.01,  119.9,   0.99831
"SNW_NW11_9395_BSB005", 13.8, 1,    7954.01,   -0.1,   0.99831, 2,    7954.01, -120.1,   0.99831, 3,    7954.01,  119.9,   0.99831
"SNW_NW11_9396_BSB005", 13.8, 1,    7954.01,   -0.1,   0.99831, 2,    7954.01, -120.1,   0.99831, 3,    7954.01,  119.9,   0.99831
"SNW_NW11_9397_BSB005", 13.8, 1,    7954.01,   -0.1,   0.99831, 2,    7954.01, -120.1,   0.99831, 3,    7954.01,  119.9,   0.99831
"SNW_NW11_9072_BSB005", 13.8, 1,    7954.02,   -0.1,   0.99832, 2,    7954.02, -120.1,   0.99832, 3,    7954.02,  119.9,   0.99832
"SNW_NW11_9073_BSB005", 13.8, 1,    7954.02,   -0.1,   0.99832, 2,    7954.02, -120.1,   0.99832, 3,    7954.02,  119.9,   0.99832
"SNW_NW11_9072_BSB005_S", 13.8, 1,    7954.02,   -0.1,   0.99832, 2,    7954.02, -120.1,   0.99832, 3,    7954.02,  119.9,   0.99832
"SNW_NW11_9069_BSB005", 13.8, 1,    7954.02,   -0.1,   0.99832, 2,    7954.02, -120.1,   0.99832, 3,    7954.02,  119.9,   0.99832
"SNW_NW11_9074_BSB005", 13.8, 1,    7954.02,   -0.1,   0.99832, 2,    7954.02, -120.1,   0.99832, 3,    7954.02,  119.9,   0.99832
"SNW_NW11_9075_BSB005", 13.8, 1,    7954.02,   -0.1,   0.99832, 2,    7954.02, -120.1,   0.99832, 3,    7954.02,  119.9,   0.99832
"SNW_NW11_9076_BSB005", 13.8, 1,    7954.02,   -0.1,   0.99832, 2,    7954.02, -120.1,   0.99832, 3,    7954.02,  119.9,   0.99832
"SNW_NW11_9077_BSB005", 13.8, 1,    7954.02,   -0.1,   0.99832, 2,    7954.02, -120.1,   0.99832, 3,    7954.02,  119.9,   0.99832
"SNW_NW11_9078_BSB005", 13.8, 1,    7954.01,   -0.1,   0.99832, 2,    7954.01, -120.1,   0.99832, 3,    7954.01,  119.9,   0.99832
"SNW_NW11_9079_BSB005", 13.8, 1,    7954.01,   -0.1,   0.99832, 2,    7954.01, -120.1,   0.99832, 3,    7954.01,  119.9,   0.99832
"SNW_NW11_9080_BSB005", 13.8, 1,    7954.01,   -0.1,   0.99832, 2,    7954.01, -120.1,   0.99832, 3,    7954.01,  119.9,   0.99832
"SNW_NW11_9081_BSB005", 13.8, 1,    7954.01,   -0.1,   0.99832, 2,    7954.01, -120.1,   0.99832, 3,    7954.01,  119.9,   0.99832
"SNW_NW11_9082_BSB005", 13.8, 1,    7954.01,   -0.1,   0.99832, 2,    7954.01, -120.1,   0.99832, 3,    7954.01,  119.9,   0.99832
"SNW_NW11_9083_BSB005", 13.8, 1,    7954.01,   -0.1,   0.99831, 2,    7954.01, -120.1,   0.99831, 3,    7954.01,  119.9,   0.99831
"SNW_NW11_9084_BSB005_S", 13.8, 1,    7954.01,   -0.1,   0.99831, 2,    7954.01, -120.1,   0.99831, 3,    7954.01,  119.9,   0.99831
"SNW_NW11_9029_BSB006", 13.8, 1,     7956.9,   -0.1,   0.99868, 2,     7956.9, -120.1,   0.99868, 3,     7956.9,  119.9,   0.99868
"SNW_NW11_9030_BSB006", 13.8, 1,     7956.9,   -0.1,   0.99868, 2,     7956.9, -120.1,   0.99868, 3,     7956.9,  119.9,   0.99868
"SNW_NW11_9003_BSB006", 13.8, 1,     7955.5,   -0.1,    0.9985, 2,     7955.5, -120.1,    0.9985, 3,     7955.5,  119.9,    0.9985
"SNW_NW11_9104_BSB006", 13.8, 1,    7955.47,   -0.1,    0.9985, 2,    7955.47, -120.1,    0.9985, 3,    7955.47,  119.9,    0.9985
"SNW_NW11_9102_BSB006", 13.8, 1,    7955.42,   -0.1,   0.99849, 2,    7955.42, -120.1,   0.99849, 3,    7955.42,  119.9,   0.99849
"SNW_NW11_9103_BSB006", 13.8, 1,    7955.45,   -0.1,    0.9985, 2,    7955.45, -120.1,    0.9985, 3,    7955.45,  119.9,    0.9985
"SNW_NW11_9100_BSB006", 13.8, 1,    7955.38,   -0.1,   0.99849, 2,    7955.38, -120.1,   0.99849, 3,    7955.38,  119.9,   0.99849
"SNW_NW11_9101_BSB006", 13.8, 1,     7955.4,   -0.1,   0.99849, 2,     7955.4, -120.1,   0.99849, 3,     7955.4,  119.9,   0.99849
"SNW_NW11_9066_BSB005", 13.8, 1,    7954.04,   -0.1,   0.99832, 2,    7954.04, -120.1,   0.99832, 3,    7954.04,  119.9,   0.99832
"SNW_NW11_9067_BSB005", 13.8, 1,    7954.03,   -0.1,   0.99832, 2,    7954.03, -120.1,   0.99832, 3,    7954.03,  119.9,   0.99832
"SNW_NW11_9046_BSB005", 13.8, 1,    7954.17,   -0.1,   0.99834, 2,    7954.17, -120.1,   0.99834, 3,    7954.17,  119.9,   0.99834
"SNW_NW11_9047_BSB005", 13.8, 1,    7954.16,   -0.1,   0.99833, 2,    7954.16, -120.1,   0.99833, 3,    7954.16,  119.9,   0.99833
"SNW_NW11_9080_BSBRJ015_ATV", 13.8, 1,    7954.98,   -0.1,   0.99844, 2,    7954.98, -120.1,   0.99844, 3,    7954.98,  119.9,   0.99844
"SNW_NW11_9082_BSBRJ015_ATV", 13.8, 1,    7954.98,   -0.1,   0.99844, 2,    7954.98, -120.1,   0.99844, 3,    7954.98,  119.9,   0.99844
"SNW_NW11_9047_BSBRJ015_ATV", 13.8, 1,    7954.96,   -0.1,   0.99843, 2,    7954.96, -120.1,   0.99843, 3,    7954.96,  119.9,   0.99843
"SNW_NW11_9048_BSBRJ015_ATV", 13.8, 1,    7954.95,   -0.1,   0.99843, 2,    7954.95, -120.1,   0.99843, 3,    7954.95,  119.9,   0.99843
"SNW_NW11_9187_BSB003", 13.8, 1,    7954.95,   -0.1,   0.99843, 2,    7954.95, -120.1,   0.99843, 3,    7954.95,  119.9,   0.99843
"SNW_NW11_9164_BSB014", 13.8, 1,    7954.98,   -0.1,   0.99844, 2,    7954.98, -120.1,   0.99844, 3,    7954.98,  119.9,   0.99844
"SNW_NW11_9200_BSB014", 13.8, 1,    7954.98,   -0.1,   0.99844, 2,    7954.98, -120.1,   0.99844, 3,    7954.98,  119.9,   0.99844
"SNW_NW11_9078_BSB006", 13.8, 1,    7955.21,   -0.1,   0.99847, 2,    7955.21, -120.1,   0.99847, 3,    7955.21,  119.9,   0.99847
"SNW_NW11_9068_BSB006", 13.8, 1,    7955.29,   -0.1,   0.99848, 2,    7955.29, -120.1,   0.99848, 3,    7955.29,  119.9,   0.99848
"SNW_NW11_9069_BSB006", 13.8, 1,    7955.28,   -0.1,   0.99847, 2,    7955.28, -120.1,   0.99847, 3,    7955.28,  119.9,   0.99847
"SNW_NW11_9098_BSB006", 13.8, 1,    7955.33,   -0.1,   0.99848, 2,    7955.33, -120.1,   0.99848, 3,    7955.33,  119.9,   0.99848
"SNW_NW11_9099_BSB006", 13.8, 1,    7955.36,   -0.1,   0.99848, 2,    7955.36, -120.1,   0.99848, 3,    7955.36,  119.9,   0.99848
"SNW_NW11_9153_BSB006", 13.8, 1,    7954.89,   -0.1,   0.99843, 2,    7954.89, -120.1,   0.99843, 3,    7954.89,  119.9,   0.99843
"SNW_NW11_9154_BSB006_S", 13.8, 1,    7954.91,   -0.1,   0.99843, 2,    7954.91, -120.1,   0.99843, 3,    7954.91,  119.9,   0.99843
"SNW_NW11_9215_BSB003", 13.8, 1,     7954.9,   -0.1,   0.99843, 2,     7954.9, -120.1,   0.99843, 3,     7954.9,  119.9,   0.99843
"SNW_NW11_9216_BSB003", 13.8, 1,     7954.9,   -0.1,   0.99843, 2,     7954.9, -120.1,   0.99843, 3,     7954.9,  119.9,   0.99843
"SNW_NW11_9035_BSBRJ015_ATV", 13.8, 1,    7954.97,   -0.1,   0.99844, 2,    7954.97, -120.1,   0.99844, 3,    7954.97,  119.9,   0.99844
"SNW_NW11_9040_BSBRJ015_ATV", 13.8, 1,    7954.97,   -0.1,   0.99844, 2,    7954.97, -120.1,   0.99844, 3,    7954.97,  119.9,   0.99844
"SNW_NW11_9315_BSB005", 13.8, 1,    7953.86,   -0.1,    0.9983, 2,    7953.86, -120.1,    0.9983, 3,    7953.86,  119.9,    0.9983
"SNW_NW11_9350_BSB005", 13.8, 1,    7953.86,   -0.1,    0.9983, 2,    7953.86, -120.1,    0.9983, 3,    7953.86,  119.9,    0.9983
"SNW_NW11_9002_BSB006", 13.8, 1,    7955.41,   -0.1,   0.99849, 2,    7955.41, -120.1,   0.99849, 3,    7955.41,  119.9,   0.99849
"SNW_NW11_9141_BSBRJ011_ATV", 13.8, 1,    7955.39,   -0.1,   0.99849, 2,    7955.39, -120.1,   0.99849, 3,    7955.39,  119.9,   0.99849
"SNW_NW11_9144_BSBRJ011_ATV", 13.8, 1,     7955.4,   -0.1,   0.99849, 2,     7955.4, -120.1,   0.99849, 3,     7955.4,  119.9,   0.99849
"SNW_NW11_9140_BSBRJ011_ATV_S", 13.8, 1,    7955.39,   -0.1,   0.99849, 2,    7955.39, -120.1,   0.99849, 3,    7955.39,  119.9,   0.99849
"SNW_NW11_9140_BSBRJ011_ATV", 13.8, 1,    7955.39,   -0.1,   0.99849, 2,    7955.39, -120.1,   0.99849, 3,    7955.39,  119.9,   0.99849
"SNW_NW11_9142_BSBRJ011_ATV", 13.8, 1,    7955.38,   -0.1,   0.99849, 2,    7955.38, -120.1,   0.99849, 3,    7955.38,  119.9,   0.99849
"SNW_NW11_9138_BSBRJ011_ATV", 13.8, 1,    7955.38,   -0.1,   0.99849, 2,    7955.38, -120.1,   0.99849, 3,    7955.38,  119.9,   0.99849
"SNW_NW11_9139_BSBRJ011_ATV", 13.8, 1,    7955.39,   -0.1,   0.99849, 2,    7955.39, -120.1,   0.99849, 3,    7955.39,  119.9,   0.99849
"SNW_NW11_9137_BSBRJ011_ATV", 13.8, 1,    7955.38,   -0.1,   0.99849, 2,    7955.38, -120.1,   0.99849, 3,    7955.38,  119.9,   0.99849
"SNW_NW11_9135_BSBRJ011_ATV_S", 13.8, 1,    7955.38,   -0.1,   0.99849, 2,    7955.38, -120.1,   0.99849, 3,    7955.38,  119.9,   0.99849
"SNW_NW11_9006_BSB005", 13.8, 1,       7955,   -0.1,   0.99844, 2,       7955, -120.1,   0.99844, 3,       7955,  119.9,   0.99844
"SNW_NW11_9007_BSB005", 13.8, 1,    7954.98,   -0.1,   0.99844, 2,    7954.98, -120.1,   0.99844, 3,    7954.98,  119.9,   0.99844
"SNW_NW11_9200_BSB003", 13.8, 1,    7954.91,   -0.1,   0.99843, 2,    7954.91, -120.1,   0.99843, 3,    7954.91,  119.9,   0.99843
"SNW_NW11_9201_BSB003", 13.8, 1,     7954.9,   -0.1,   0.99843, 2,     7954.9, -120.1,   0.99843, 3,     7954.9,  119.9,   0.99843
"SNW_NW11_9202_BSB003", 13.8, 1,     7954.9,   -0.1,   0.99843, 2,     7954.9, -120.1,   0.99843, 3,     7954.9,  119.9,   0.99843
"SNW_NW11_9203_BSB003", 13.8, 1,     7954.9,   -0.1,   0.99843, 2,     7954.9, -120.1,   0.99843, 3,     7954.9,  119.9,   0.99843
"SNW_NW11_9204_BSB003", 13.8, 1,     7954.9,   -0.1,   0.99843, 2,     7954.9, -120.1,   0.99843, 3,     7954.9,  119.9,   0.99843
"SNW_NW11_9206_BSB003", 13.8, 1,     7954.9,   -0.1,   0.99843, 2,     7954.9, -120.1,   0.99843, 3,     7954.9,  119.9,   0.99843
"SNW_NW11_9207_BSB003", 13.8, 1,     7954.9,   -0.1,   0.99843, 2,     7954.9, -120.1,   0.99843, 3,     7954.9,  119.9,   0.99843
"SNW_NW11_9208_BSB003", 13.8, 1,     7954.9,   -0.1,   0.99843, 2,     7954.9, -120.1,   0.99843, 3,     7954.9,  119.9,   0.99843
"SNW_NW11_9209_BSB003", 13.8, 1,     7954.9,   -0.1,   0.99843, 2,     7954.9, -120.1,   0.99843, 3,     7954.9,  119.9,   0.99843
"SNW_NW11_9210_BSB003", 13.8, 1,     7954.9,   -0.1,   0.99843, 2,     7954.9, -120.1,   0.99843, 3,     7954.9,  119.9,   0.99843
"SNW_NW11_9213_BSB003", 13.8, 1,     7954.9,   -0.1,   0.99843, 2,     7954.9, -120.1,   0.99843, 3,     7954.9,  119.9,   0.99843
"SNW_NW11_9214_BSB003", 13.8, 1,     7954.9,   -0.1,   0.99843, 2,     7954.9, -120.1,   0.99843, 3,     7954.9,  119.9,   0.99843
"SNW_NW11_9219_BSB003", 13.8, 1,     7954.9,   -0.1,   0.99843, 2,     7954.9, -120.1,   0.99843, 3,     7954.9,  119.9,   0.99843
"SNW_NW11_9220_BSB003", 13.8, 1,     7954.9,   -0.1,   0.99843, 2,     7954.9, -120.1,   0.99843, 3,     7954.9,  119.9,   0.99843
"SNW_NW11_9128_BSB006", 13.8, 1,    7954.67,   -0.1,    0.9984, 2,    7954.67, -120.1,    0.9984, 3,    7954.67,  119.9,    0.9984
"SNW_NW11_9130_BSB006", 13.8, 1,    7954.67,   -0.1,    0.9984, 2,    7954.67, -120.1,    0.9984, 3,    7954.67,  119.9,    0.9984
"SNW_NW11_9007_BSBRJ015_ATV", 13.8, 1,    7954.99,   -0.1,   0.99844, 2,    7954.99, -120.1,   0.99844, 3,    7954.99,  119.9,   0.99844
"SNW_NW11_9011_BSBRJ015_ATV", 13.8, 1,    7954.99,   -0.1,   0.99844, 2,    7954.99, -120.1,   0.99844, 3,    7954.99,  119.9,   0.99844
"SNW_NW11_9079_BSBRJ015_ATV", 13.8, 1,    7954.98,   -0.1,   0.99844, 2,    7954.98, -120.1,   0.99844, 3,    7954.98,  119.9,   0.99844
"SNW_NW11_9205_BSB003", 13.8, 1,     7954.9,   -0.1,   0.99843, 2,     7954.9, -120.1,   0.99843, 3,     7954.9,  119.9,   0.99843
"SNW_NW11_9221_BSB003", 13.8, 1,     7954.9,   -0.1,   0.99843, 2,     7954.9, -120.1,   0.99843, 3,     7954.9,  119.9,   0.99843
"SNW_NW11_9222_BSB003", 13.8, 1,     7954.9,   -0.1,   0.99843, 2,     7954.9, -120.1,   0.99843, 3,     7954.9,  119.9,   0.99843
"SNW_NW11_9064_BSB005", 13.8, 1,    7954.05,   -0.1,   0.99832, 2,    7954.05, -120.1,   0.99832, 3,    7954.05,  119.9,   0.99832
"SNW_NW11_9398_BSB005", 13.8, 1,    7954.01,   -0.1,   0.99831, 2,    7954.01, -120.1,   0.99831, 3,    7954.01,  119.9,   0.99831
"SNW_NW11_9399_BSB005", 13.8, 1,    7954.01,   -0.1,   0.99831, 2,    7954.01, -120.1,   0.99831, 3,    7954.01,  119.9,   0.99831
"SNW_NW11_9147_BSBRJ011_ATV", 13.8, 1,    7955.41,   -0.1,   0.99849, 2,    7955.41, -120.1,   0.99849, 3,    7955.41,  119.9,   0.99849
"SNW_NW11_9148_BSBRJ011_ATV", 13.8, 1,    7955.42,   -0.1,   0.99849, 2,    7955.42, -120.1,   0.99849, 3,    7955.42,  119.9,   0.99849
"SNW_NW11_9084_BSB005", 13.8, 1,    7954.01,   -0.1,   0.99831, 2,    7954.01, -120.1,   0.99831, 3,    7954.01,  119.9,   0.99831
"SNW_NW11_9085_BSB005", 13.8, 1,    7954.01,   -0.1,   0.99831, 2,    7954.01, -120.1,   0.99831, 3,    7954.01,  119.9,   0.99831
"SNW_NW11_9128_BSBRJ011_ATV", 13.8, 1,    7955.38,   -0.1,   0.99849, 2,    7955.38, -120.1,   0.99849, 3,    7955.38,  119.9,   0.99849
"SNW_NW11_9129_BSBRJ011_ATV", 13.8, 1,    7955.38,   -0.1,   0.99849, 2,    7955.38, -120.1,   0.99849, 3,    7955.38,  119.9,   0.99849
"SNW_NW11_9023_BSB005", 13.8, 1,    7954.62,   -0.1,   0.99839, 2,    7954.62, -120.1,   0.99839, 3,    7954.62,  119.9,   0.99839
"SNW_NW11_9024_BSB005", 13.8, 1,    7954.59,   -0.1,   0.99839, 2,    7954.59, -120.1,   0.99839, 3,    7954.59,  119.9,   0.99839
"SNW_NW11_9224_BSB005", 13.8, 1,    7954.13,   -0.1,   0.99833, 2,    7954.13, -120.1,   0.99833, 3,    7954.13,  119.9,   0.99833
"SNW_NW11_9225_BSB005", 13.8, 1,    7954.14,   -0.1,   0.99833, 2,    7954.14, -120.1,   0.99833, 3,    7954.14,  119.9,   0.99833
"SNW_NW11_9242_BSB005", 13.8, 1,    7953.96,   -0.1,   0.99831, 2,    7953.96, -120.1,   0.99831, 3,    7953.96,  119.9,   0.99831
"SNW_NW11_9243_BSB005", 13.8, 1,    7953.95,   -0.1,   0.99831, 2,    7953.95, -120.1,   0.99831, 3,    7953.95,  119.9,   0.99831
"SNW_NW11_9113_BSB006", 13.8, 1,    7955.08,   -0.1,   0.99845, 2,    7955.08, -120.1,   0.99845, 3,    7955.08,  119.9,   0.99845
"SNW_NW11_9114_BSB006", 13.8, 1,    7955.06,   -0.1,   0.99845, 2,    7955.06, -120.1,   0.99845, 3,    7955.06,  119.9,   0.99845
"SNW_NW11_9082_BSB006", 13.8, 1,     7955.2,   -0.1,   0.99846, 2,     7955.2, -120.1,   0.99846, 3,     7955.2,  119.9,   0.99846
"SNW_NW11_9083_BSB006", 13.8, 1,     7955.2,   -0.1,   0.99846, 2,     7955.2, -120.1,   0.99846, 3,     7955.2,  119.9,   0.99846
"SNW_NW11_9119_BSB006", 13.8, 1,    7954.95,   -0.1,   0.99843, 2,    7954.95, -120.1,   0.99843, 3,    7954.95,  119.9,   0.99843
"SNW_NW11_9121_BSB006", 13.8, 1,     7954.9,   -0.1,   0.99843, 2,     7954.9, -120.1,   0.99843, 3,     7954.9,  119.9,   0.99843
"SNW_NW11_9138_BSB006", 13.8, 1,    7954.68,   -0.1,    0.9984, 2,    7954.68, -120.1,    0.9984, 3,    7954.68,  119.9,    0.9984
"SNW_NW11_9139_BSB006_S", 13.8, 1,    7954.69,   -0.1,    0.9984, 2,    7954.69, -120.1,    0.9984, 3,    7954.69,  119.9,    0.9984
"SNW_NW11_9115_BSB006", 13.8, 1,    7955.17,   -0.1,   0.99846, 2,    7955.17, -120.1,   0.99846, 3,    7955.17,  119.9,   0.99846
"SNW_NW11_BSB_FL_MT_5184700", 13.8, 1,    7955.17,   -0.1,   0.99846, 2,    7955.17, -120.1,   0.99846, 3,    7955.17,  119.9,   0.99846
"SNW_NW11_9031_BSB006", 13.8, 1,     7956.8,   -0.1,   0.99867, 2,     7956.8, -120.1,   0.99867, 3,     7956.8,  119.9,   0.99867
"SNW_NW11_9032_BSB006_S", 13.8, 1,    7956.71,   -0.1,   0.99865, 2,    7956.71, -120.1,   0.99865, 3,    7956.71,  119.9,   0.99865
"SNW_NW11_9202_BSB005_S", 13.8, 1,    7954.02,   -0.1,   0.99832, 2,    7954.02, -120.1,   0.99832, 3,    7954.02,  119.9,   0.99832
"SNW_NW11_9203_BSB005", 13.8, 1,    7954.03,   -0.1,   0.99832, 2,    7954.03, -120.1,   0.99832, 3,    7954.03,  119.9,   0.99832
"SNW_NW11_9024_BSB006", 13.8, 1,    7957.39,   -0.1,   0.99874, 2,    7957.39, -120.1,   0.99874, 3,    7957.39,  119.9,   0.99874
"SNW_NW11_9025_BSB006", 13.8, 1,    7957.29,   -0.1,   0.99873, 2,    7957.29, -120.1,   0.99873, 3,    7957.29,  119.9,   0.99873
"SNW_NW11_9190_BSB005", 13.8, 1,    7954.02,   -0.1,   0.99832, 2,    7954.02, -120.1,   0.99832, 3,    7954.02,  119.9,   0.99832
"SNW_NW11_9014_BSBRJ015_ATV", 13.8, 1,    7954.98,   -0.1,   0.99844, 2,    7954.98, -120.1,   0.99844, 3,    7954.98,  119.9,   0.99844
"SNW_NW11_9018_BSBRJ015_ATV", 13.8, 1,    7954.98,   -0.1,   0.99844, 2,    7954.98, -120.1,   0.99844, 3,    7954.98,  119.9,   0.99844
"SNW_NW11_9020_BSBRJ015_ATV", 13.8, 1,    7954.98,   -0.1,   0.99844, 2,    7954.98, -120.1,   0.99844, 3,    7954.98,  119.9,   0.99844
"SNW_NW11_9009_BSBRJ015_ATV", 13.8, 1,    7954.99,   -0.1,   0.99844, 2,    7954.99, -120.1,   0.99844, 3,    7954.99,  119.9,   0.99844
"SNW_NW11_9010_BSBRJ015_ATV", 13.8, 1,    7954.99,   -0.1,   0.99844, 2,    7954.99, -120.1,   0.99844, 3,    7954.99,  119.9,   0.99844
"SNW_NW11_9015_BSBRJ015_ATV", 13.8, 1,    7954.98,   -0.1,   0.99844, 2,    7954.98, -120.1,   0.99844, 3,    7954.98,  119.9,   0.99844
"SNW_NW11_9021_BSBRJ015_ATV", 13.8, 1,    7954.98,   -0.1,   0.99844, 2,    7954.98, -120.1,   0.99844, 3,    7954.98,  119.9,   0.99844
"SNW_NW11_9027_BSBRJ015_ATV", 13.8, 1,    7954.98,   -0.1,   0.99844, 2,    7954.98, -120.1,   0.99844, 3,    7954.98,  119.9,   0.99844
"SNW_NW11_9022_BSBRJ015_ATV", 13.8, 1,    7954.98,   -0.1,   0.99844, 2,    7954.98, -120.1,   0.99844, 3,    7954.98,  119.9,   0.99844
"SNW_NW11_9025_BSBRJ015_ATV", 13.8, 1,    7954.98,   -0.1,   0.99844, 2,    7954.98, -120.1,   0.99844, 3,    7954.98,  119.9,   0.99844
"SNW_NW11_9028_BSBRJ015_ATV", 13.8, 1,    7954.97,   -0.1,   0.99844, 2,    7954.97, -120.1,   0.99844, 3,    7954.97,  119.9,   0.99844
"SNW_NW11_9032_BSBRJ015_ATV", 13.8, 1,    7954.97,   -0.1,   0.99844, 2,    7954.97, -120.1,   0.99844, 3,    7954.97,  119.9,   0.99844
"SNW_NW11_9045_BSBRJ015_ATV", 13.8, 1,    7954.96,   -0.1,   0.99843, 2,    7954.96, -120.1,   0.99843, 3,    7954.96,  119.9,   0.99843
"SNW_NW11_9046_BSBRJ015_ATV", 13.8, 1,    7954.96,   -0.1,   0.99843, 2,    7954.96, -120.1,   0.99843, 3,    7954.96,  119.9,   0.99843
"SNW_NW11_9093_BSBRJ015_ATV", 13.8, 1,    7954.96,   -0.1,   0.99843, 2,    7954.96, -120.1,   0.99843, 3,    7954.96,  119.9,   0.99843
"SNW_NW11_9095_BSBRJ015_ATV", 13.8, 1,    7954.96,   -0.1,   0.99843, 2,    7954.96, -120.1,   0.99843, 3,    7954.96,  119.9,   0.99843
"SNW_NW11_9091_BSBRJ015_ATV", 13.8, 1,    7954.96,   -0.1,   0.99843, 2,    7954.96, -120.1,   0.99843, 3,    7954.96,  119.9,   0.99843
"SNW_NW11_9089_BSBRJ015_ATV", 13.8, 1,    7954.96,   -0.1,   0.99843, 2,    7954.96, -120.1,   0.99843, 3,    7954.96,  119.9,   0.99843
"SNW_NW11_9086_BSBRJ015_ATV", 13.8, 1,    7954.98,   -0.1,   0.99844, 2,    7954.98, -120.1,   0.99844, 3,    7954.98,  119.9,   0.99844
"SNW_NW11_9088_BSBRJ015_ATV", 13.8, 1,    7954.98,   -0.1,   0.99844, 2,    7954.98, -120.1,   0.99844, 3,    7954.98,  119.9,   0.99844
"SNW_NW11_9023_BSBRJ015_ATV", 13.8, 1,    7954.98,   -0.1,   0.99844, 2,    7954.98, -120.1,   0.99844, 3,    7954.98,  119.9,   0.99844
"SNW_NW11_9026_BSBRJ015_ATV", 13.8, 1,    7954.98,   -0.1,   0.99844, 2,    7954.98, -120.1,   0.99844, 3,    7954.98,  119.9,   0.99844
"SNW_NW11_9029_BSBRJ015_ATV", 13.8, 1,    7954.98,   -0.1,   0.99844, 2,    7954.98, -120.1,   0.99844, 3,    7954.98,  119.9,   0.99844
"SNW_NW11_9036_BSBRJ015_ATV", 13.8, 1,    7954.98,   -0.1,   0.99844, 2,    7954.98, -120.1,   0.99844, 3,    7954.98,  119.9,   0.99844
"SNW_NW11_9039_BSBRJ015_ATV", 13.8, 1,    7954.98,   -0.1,   0.99844, 2,    7954.98, -120.1,   0.99844, 3,    7954.98,  119.9,   0.99844
"SNW_NW11_9043_BSBRJ015_ATV", 13.8, 1,    7954.98,   -0.1,   0.99844, 2,    7954.98, -120.1,   0.99844, 3,    7954.98,  119.9,   0.99844
"SNW_NW11_9311_BSB007", 13.8, 1,    7954.98,   -0.1,   0.99844, 2,    7954.98, -120.1,   0.99844, 3,    7954.98,  119.9,   0.99844
"SNW_NW11_9310_BSB007", 13.8, 1,    7954.98,   -0.1,   0.99844, 2,    7954.98, -120.1,   0.99844, 3,    7954.98,  119.9,   0.99844
"SNW_NW11_9094_BSBRJ015_ATV", 13.8, 1,    7954.98,   -0.1,   0.99844, 2,    7954.98, -120.1,   0.99844, 3,    7954.98,  119.9,   0.99844
"SNW_NW11_9096_BSBRJ015_ATV", 13.8, 1,    7954.98,   -0.1,   0.99844, 2,    7954.98, -120.1,   0.99844, 3,    7954.98,  119.9,   0.99844
"SNW_NW11_9041_BSBRJ015_ATV", 13.8, 1,    7954.97,   -0.1,   0.99844, 2,    7954.97, -120.1,   0.99844, 3,    7954.97,  119.9,   0.99844
"SNW_NW11_9044_BSBRJ015_ATV", 13.8, 1,    7954.97,   -0.1,   0.99844, 2,    7954.97, -120.1,   0.99844, 3,    7954.97,  119.9,   0.99844
"SNW_NW11_9312_BSB007", 13.8, 1,    7954.96,   -0.1,   0.99843, 2,    7954.96, -120.1,   0.99843, 3,    7954.96,  119.9,   0.99843
"SNW_NW11_9005_BSBRJ015_ATV", 13.8, 1,       7955,   -0.1,   0.99844, 2,       7955, -120.1,   0.99844, 3,       7955,  119.9,   0.99844
"SNW_NW11_9003_BSBRJ015_ATV", 13.8, 1,       7955,   -0.1,   0.99844, 2,       7955, -120.1,   0.99844, 3,       7955,  119.9,   0.99844
"SNW_NW11_9002_BSBRJ015_ATV", 13.8, 1,    7955.01,   -0.1,   0.99844, 2,    7955.01, -120.1,   0.99844, 3,    7955.01,  119.9,   0.99844
"SNW_NW11_9236_BSB006", 13.8, 1,    7955.01,   -0.1,   0.99844, 2,    7955.01, -120.1,   0.99844, 3,    7955.01,  119.9,   0.99844
"SNW_NW11_9049_BSB006", 13.8, 1,    7955.56,   -0.1,   0.99851, 2,    7955.56, -120.1,   0.99851, 3,    7955.56,  119.9,   0.99851
"SNW_NW11_9050_BSB006_S", 13.8, 1,     7955.5,   -0.1,    0.9985, 2,     7955.5, -120.1,    0.9985, 3,     7955.5,  119.9,    0.9985
"SNW_NW11_9111_BSB006", 13.8, 1,    7955.14,   -0.1,   0.99846, 2,    7955.14, -120.1,   0.99846, 3,    7955.14,  119.9,   0.99846
"SNW_NW11_9163_BSB006", 13.8, 1,    7955.19,   -0.1,   0.99846, 2,    7955.19, -120.1,   0.99846, 3,    7955.19,  119.9,   0.99846
"SNW_NW11_9164_BSB006", 13.8, 1,    7955.23,   -0.1,   0.99847, 2,    7955.23, -120.1,   0.99847, 3,    7955.23,  119.9,   0.99847
"SNW_NW11_9017_BSB006", 13.8, 1,    7956.91,   -0.1,   0.99868, 2,    7956.91, -120.1,   0.99868, 3,    7956.91,  119.9,   0.99868
"SNW_NW11_9018_BSB006", 13.8, 1,    7957.03,   -0.1,   0.99869, 2,    7957.03, -120.1,   0.99869, 3,    7957.03,  119.9,   0.99869
"SNW_NW11_9159_BSB006", 13.8, 1,    7955.04,   -0.1,   0.99844, 2,    7955.04, -120.1,   0.99844, 3,    7955.04,  119.9,   0.99844
"SNW_NW11_9160_BSB006", 13.8, 1,    7955.08,   -0.1,   0.99845, 2,    7955.08, -120.1,   0.99845, 3,    7955.08,  119.9,   0.99845
"SNW_NW11_9031_BSBRJ015_ATV", 13.8, 1,    7954.97,   -0.1,   0.99844, 2,    7954.97, -120.1,   0.99844, 3,    7954.97,  119.9,   0.99844
"SNW_NW11_9034_BSBRJ015_ATV", 13.8, 1,    7954.97,   -0.1,   0.99844, 2,    7954.97, -120.1,   0.99844, 3,    7954.97,  119.9,   0.99844
"SNW_NW11_9129_BSB006", 13.8, 1,    7954.64,   -0.1,   0.99839, 2,    7954.64, -120.1,   0.99839, 3,    7954.64,  119.9,   0.99839
"SNW_NW11_9135_BSB006", 13.8, 1,    7954.67,   -0.1,    0.9984, 2,    7954.67, -120.1,    0.9984, 3,    7954.67,  119.9,    0.9984
"SNW_NW11_9136_BSB006", 13.8, 1,    7954.66,   -0.1,    0.9984, 2,    7954.66, -120.1,    0.9984, 3,    7954.66,  119.9,    0.9984
"SNW_NW11_9380_BSB005", 13.8, 1,    7954.01,   -0.1,   0.99832, 2,    7954.01, -120.1,   0.99832, 3,    7954.01,  119.9,   0.99832
"SNW_NW11_9381_BSB005", 13.8, 1,    7954.01,   -0.1,   0.99832, 2,    7954.01, -120.1,   0.99832, 3,    7954.01,  119.9,   0.99832
"SNW_NW11_9162_BSB006", 13.8, 1,    7955.15,   -0.1,   0.99846, 2,    7955.15, -120.1,   0.99846, 3,    7955.15,  119.9,   0.99846
"SNW_NW11_9013_BSB005", 13.8, 1,    7954.84,   -0.1,   0.99842, 2,    7954.84, -120.1,   0.99842, 3,    7954.84,  119.9,   0.99842
"SNW_NW11_9014_BSB005", 13.8, 1,    7954.82,   -0.1,   0.99842, 2,    7954.82, -120.1,   0.99842, 3,    7954.82,  119.9,   0.99842
"SNW_NW11_9028_BSB005", 13.8, 1,    7954.51,   -0.1,   0.99838, 2,    7954.51, -120.1,   0.99838, 3,    7954.51,  119.9,   0.99838
"SNW_NW11_9029_BSB005", 13.8, 1,    7954.48,   -0.1,   0.99837, 2,    7954.48, -120.1,   0.99837, 3,    7954.48,  119.9,   0.99837
"SNW_NW11_9042_BSB005", 13.8, 1,     7954.2,   -0.1,   0.99834, 2,     7954.2, -120.1,   0.99834, 3,     7954.2,  119.9,   0.99834
"SNW_NW11_9043_BSB005", 13.8, 1,    7954.19,   -0.1,   0.99834, 2,    7954.19, -120.1,   0.99834, 3,    7954.19,  119.9,   0.99834
"SNW_NW11_9048_BSB005", 13.8, 1,    7954.15,   -0.1,   0.99833, 2,    7954.15, -120.1,   0.99833, 3,    7954.15,  119.9,   0.99833
"SNW_NW11_9353_BSB005", 13.8, 1,    7953.85,   -0.1,   0.99829, 2,    7953.85, -120.1,   0.99829, 3,    7953.85,  119.9,   0.99829
"SNW_NW11_9354_BSB005", 13.8, 1,    7953.85,   -0.1,   0.99829, 2,    7953.85, -120.1,   0.99829, 3,    7953.85,  119.9,   0.99829
"SNW_NW11_9127_BSB006", 13.8, 1,     7954.7,   -0.1,    0.9984, 2,     7954.7, -120.1,    0.9984, 3,     7954.7,  119.9,    0.9984
"SNW_NW11_9128_BSB006_S", 13.8, 1,    7954.67,   -0.1,    0.9984, 2,    7954.67, -120.1,    0.9984, 3,    7954.67,  119.9,    0.9984
"SNW_NW11_9053_BSB006", 13.8, 1,    7955.38,   -0.1,   0.99849, 2,    7955.38, -120.1,   0.99849, 3,    7955.38,  119.9,   0.99849
"SNW_NW11_9055_BSB006", 13.8, 1,    7955.34,   -0.1,   0.99848, 2,    7955.34, -120.1,   0.99848, 3,    7955.34,  119.9,   0.99848
"SNW_NW11_9035_BSB006", 13.8, 1,    7956.55,   -0.1,   0.99863, 2,    7956.55, -120.1,   0.99863, 3,    7956.55,  119.9,   0.99863
"SNW_NW11_9036_BSB006", 13.8, 1,    7956.47,   -0.1,   0.99862, 2,    7956.47, -120.1,   0.99862, 3,    7956.47,  119.9,   0.99862
"SNW_NW11_9013_BSB006", 13.8, 1,    7956.47,   -0.1,   0.99862, 2,    7956.47, -120.1,   0.99862, 3,    7956.47,  119.9,   0.99862
"SNW_NW11_9014_BSB006", 13.8, 1,    7956.57,   -0.1,   0.99864, 2,    7956.57, -120.1,   0.99864, 3,    7956.57,  119.9,   0.99864
"SNW_NW11_9061_BSB005", 13.8, 1,    7954.08,   -0.1,   0.99832, 2,    7954.08, -120.1,   0.99832, 3,    7954.08,  119.9,   0.99832
"SNW_NW11_9195_BSB003", 13.8, 1,    7954.92,   -0.1,   0.99843, 2,    7954.92, -120.1,   0.99843, 3,    7954.92,  119.9,   0.99843
"SNW_NW11_9198_BSB003", 13.8, 1,    7954.92,   -0.1,   0.99843, 2,    7954.92, -120.1,   0.99843, 3,    7954.92,  119.9,   0.99843
"SNW_NW11_9092_BSBRJ015_ATV", 13.8, 1,    7954.98,   -0.1,   0.99844, 2,    7954.98, -120.1,   0.99844, 3,    7954.98,  119.9,   0.99844
"SNW_NW11_9016_BSBRJ015_ATV", 13.8, 1,    7954.98,   -0.1,   0.99844, 2,    7954.98, -120.1,   0.99844, 3,    7954.98,  119.9,   0.99844
"SNW_NW11_9097_BSBRJ015_ATV", 13.8, 1,    7954.96,   -0.1,   0.99843, 2,    7954.96, -120.1,   0.99843, 3,    7954.96,  119.9,   0.99843
"SNW_NW11_9084_BSBRJ015_ATV", 13.8, 1,    7954.98,   -0.1,   0.99844, 2,    7954.98, -120.1,   0.99844, 3,    7954.98,  119.9,   0.99844
"SNW_NW11_9131_BSB006", 13.8, 1,    7954.66,   -0.1,    0.9984, 2,    7954.66, -120.1,    0.9984, 3,    7954.66,  119.9,    0.9984
"SNW_NW11_9132_BSB006", 13.8, 1,    7954.66,   -0.1,    0.9984, 2,    7954.66, -120.1,    0.9984, 3,    7954.66,  119.9,    0.9984
"SNW_NW11_9206_BSB005", 13.8, 1,    7954.08,   -0.1,   0.99832, 2,    7954.08, -120.1,   0.99832, 3,    7954.08,  119.9,   0.99832
"SNW_NW11_9207_BSB005", 13.8, 1,    7954.09,   -0.1,   0.99833, 2,    7954.09, -120.1,   0.99833, 3,    7954.09,  119.9,   0.99833
"SNW_NW11_9187_BSB005", 13.8, 1,    7954.01,   -0.1,   0.99832, 2,    7954.01, -120.1,   0.99832, 3,    7954.01,  119.9,   0.99832
"SNW_NW11_9068_BSB005", 13.8, 1,    7954.03,   -0.1,   0.99832, 2,    7954.03, -120.1,   0.99832, 3,    7954.03,  119.9,   0.99832
"SNW_NW11_9379_BSB005", 13.8, 1,    7954.01,   -0.1,   0.99832, 2,    7954.01, -120.1,   0.99832, 3,    7954.01,  119.9,   0.99832
"SNW_NW11_9145_BSBRJ011_ATV", 13.8, 1,     7955.4,   -0.1,   0.99849, 2,     7955.4, -120.1,   0.99849, 3,     7955.4,  119.9,   0.99849
"SNW_NW11_9146_BSBRJ011_ATV", 13.8, 1,    7955.41,   -0.1,   0.99849, 2,    7955.41, -120.1,   0.99849, 3,    7955.41,  119.9,   0.99849
"SNW_NW11_9050_BSB005", 13.8, 1,    7954.14,   -0.1,   0.99833, 2,    7954.14, -120.1,   0.99833, 3,    7954.14,  119.9,   0.99833
"SNW_NW11_9051_BSB005", 13.8, 1,    7954.13,   -0.1,   0.99833, 2,    7954.13, -120.1,   0.99833, 3,    7954.13,  119.9,   0.99833
"SNW_NW11_9087_BSB006_S", 13.8, 1,    7955.19,   -0.1,   0.99846, 2,    7955.19, -120.1,   0.99846, 3,    7955.19,  119.9,   0.99846
"SNW_NW11_9089_BSB006", 13.8, 1,     7955.2,   -0.1,   0.99846, 2,     7955.2, -120.1,   0.99846, 3,     7955.2,  119.9,   0.99846
"SNW_NW11_9073_BSB006", 13.8, 1,    7955.24,   -0.1,   0.99847, 2,    7955.24, -120.1,   0.99847, 3,    7955.24,  119.9,   0.99847
"SNW_NW11_9074_BSB006", 13.8, 1,    7955.23,   -0.1,   0.99847, 2,    7955.23, -120.1,   0.99847, 3,    7955.23,  119.9,   0.99847
"SNW_NW11_9065_BSB005", 13.8, 1,    7954.05,   -0.1,   0.99832, 2,    7954.05, -120.1,   0.99832, 3,    7954.05,  119.9,   0.99832
"SNW_NW11_9070_BSB005", 13.8, 1,    7954.02,   -0.1,   0.99832, 2,    7954.02, -120.1,   0.99832, 3,    7954.02,  119.9,   0.99832
"SNW_NW11_9071_BSB005", 13.8, 1,    7954.02,   -0.1,   0.99832, 2,    7954.02, -120.1,   0.99832, 3,    7954.02,  119.9,   0.99832
"SNW_NW11_9385_BSB005", 13.8, 1,    7954.01,   -0.1,   0.99832, 2,    7954.01, -120.1,   0.99832, 3,    7954.01,  119.9,   0.99832
"SNW_NW11_9382_BSB005", 13.8, 1,       7954,   -0.1,   0.99831, 2,       7954, -120.1,   0.99831, 3,       7954,  119.9,   0.99831
"SNW_NW11_9383_BSB005", 13.8, 1,    7954.01,   -0.1,   0.99831, 2,    7954.01, -120.1,   0.99831, 3,    7954.01,  119.9,   0.99831
"SNW_NW11_9386_BSB005", 13.8, 1,    7954.01,   -0.1,   0.99832, 2,    7954.01, -120.1,   0.99832, 3,    7954.01,  119.9,   0.99832
"SNW_NW11_9387_BSB005", 13.8, 1,    7954.01,   -0.1,   0.99832, 2,    7954.01, -120.1,   0.99832, 3,    7954.01,  119.9,   0.99832
"SNW_NW11_9388_BSB005", 13.8, 1,    7954.01,   -0.1,   0.99832, 2,    7954.01, -120.1,   0.99832, 3,    7954.01,  119.9,   0.99832
"SNW_NW11_9086_BSB005", 13.8, 1,    7954.01,   -0.1,   0.99831, 2,    7954.01, -120.1,   0.99831, 3,    7954.01,  119.9,   0.99831
"SNW_NW11_9087_BSB005", 13.8, 1,    7954.01,   -0.1,   0.99831, 2,    7954.01, -120.1,   0.99831, 3,    7954.01,  119.9,   0.99831
"SNW_NW11_9056_BSB005", 13.8, 1,    7954.09,   -0.1,   0.99833, 2,    7954.09, -120.1,   0.99833, 3,    7954.09,  119.9,   0.99833
"SNW_NW11_9057_BSB005", 13.8, 1,    7954.09,   -0.1,   0.99833, 2,    7954.09, -120.1,   0.99833, 3,    7954.09,  119.9,   0.99833
"SNW_NW11_9058_BSB005", 13.8, 1,    7954.09,   -0.1,   0.99833, 2,    7954.09, -120.1,   0.99833, 3,    7954.09,  119.9,   0.99833
"SNW_NW11_9059_BSB005", 13.8, 1,    7954.09,   -0.1,   0.99833, 2,    7954.09, -120.1,   0.99833, 3,    7954.09,  119.9,   0.99833
"SNW_NW11_9060_BSB005", 13.8, 1,    7954.08,   -0.1,   0.99832, 2,    7954.08, -120.1,   0.99832, 3,    7954.08,  119.9,   0.99832
"SNW_NW11_9051_BSB006", 13.8, 1,    7955.44,   -0.1,   0.99849, 2,    7955.44, -120.1,   0.99849, 3,    7955.44,  119.9,   0.99849
"SNW_NW11_9150_BSBRJ011_ATV", 13.8, 1,    7955.43,   -0.1,   0.99849, 2,    7955.43, -120.1,   0.99849, 3,    7955.43,  119.9,   0.99849
"SNW_NW11_9135_BSBRJ011_ATV", 13.8, 1,    7955.38,   -0.1,   0.99849, 2,    7955.38, -120.1,   0.99849, 3,    7955.38,  119.9,   0.99849
"SNW_NW11_9136_BSBRJ011_ATV", 13.8, 1,    7955.38,   -0.1,   0.99849, 2,    7955.38, -120.1,   0.99849, 3,    7955.38,  119.9,   0.99849
"SNW_NW11_9134_BSBRJ011_ATV", 13.8, 1,    7955.38,   -0.1,   0.99849, 2,    7955.38, -120.1,   0.99849, 3,    7955.38,  119.9,   0.99849
"SNW_NW11_9133_BSBRJ011_ATV", 13.8, 1,    7955.38,   -0.1,   0.99849, 2,    7955.38, -120.1,   0.99849, 3,    7955.38,  119.9,   0.99849
"SNW_NW11_9132_BSBRJ011_ATV", 13.8, 1,    7955.38,   -0.1,   0.99849, 2,    7955.38, -120.1,   0.99849, 3,    7955.38,  119.9,   0.99849
"SNW_NW11_9130_BSBRJ011_ATV", 13.8, 1,    7955.38,   -0.1,   0.99849, 2,    7955.38, -120.1,   0.99849, 3,    7955.38,  119.9,   0.99849
"SNW_NW11_9131_BSBRJ011_ATV", 13.8, 1,    7955.38,   -0.1,   0.99849, 2,    7955.38, -120.1,   0.99849, 3,    7955.38,  119.9,   0.99849
"SNW_NW11_9126_BSBRJ011_ATV", 13.8, 1,    7955.38,   -0.1,   0.99849, 2,    7955.38, -120.1,   0.99849, 3,    7955.38,  119.9,   0.99849
"SNW_NW11_9127_BSBRJ011_ATV", 13.8, 1,    7955.38,   -0.1,   0.99849, 2,    7955.38, -120.1,   0.99849, 3,    7955.38,  119.9,   0.99849
"SNW_NW11_9052_BSB005_S", 13.8, 1,    7954.12,   -0.1,   0.99833, 2,    7954.12, -120.1,   0.99833, 3,    7954.12,  119.9,   0.99833
"SNW_NW11_9202_BSB005", 13.8, 1,    7954.02,   -0.1,   0.99832, 2,    7954.02, -120.1,   0.99832, 3,    7954.02,  119.9,   0.99832
"SNW_NW11_9233_BSB005", 13.8, 1,    7954.01,   -0.1,   0.99832, 2,    7954.01, -120.1,   0.99832, 3,    7954.01,  119.9,   0.99832
"SNW_NW11_9234_BSB005", 13.8, 1,       7954,   -0.1,   0.99831, 2,       7954, -120.1,   0.99831, 3,       7954,  119.9,   0.99831
"SNW_NW11_9240_BSB005", 13.8, 1,    7953.98,   -0.1,   0.99831, 2,    7953.98, -120.1,   0.99831, 3,    7953.98,  119.9,   0.99831
"SNW_NW11_9241_BSB005", 13.8, 1,    7953.97,   -0.1,   0.99831, 2,    7953.97, -120.1,   0.99831, 3,    7953.97,  119.9,   0.99831
"SNW_NW11_9266_BSB005", 13.8, 1,    7953.94,   -0.1,   0.99831, 2,    7953.94, -120.1,   0.99831, 3,    7953.94,  119.9,   0.99831
"SNW_NW11_9264_BSB005", 13.8, 1,    7953.92,   -0.1,    0.9983, 2,    7953.92, -120.1,    0.9983, 3,    7953.92,  119.9,    0.9983
"SNW_NW11_9265_BSB005", 13.8, 1,    7953.93,   -0.1,   0.99831, 2,    7953.93, -120.1,   0.99831, 3,    7953.93,  119.9,   0.99831
"SNW_NW11_9263_BSB005", 13.8, 1,    7953.91,   -0.1,    0.9983, 2,    7953.91, -120.1,    0.9983, 3,    7953.91,  119.9,    0.9983
"SNW_NW11_9261_BSB005", 13.8, 1,     7953.9,   -0.1,    0.9983, 2,     7953.9, -120.1,    0.9983, 3,     7953.9,  119.9,    0.9983
"SNW_NW11_9262_BSB005", 13.8, 1,    7953.91,   -0.1,    0.9983, 2,    7953.91, -120.1,    0.9983, 3,    7953.91,  119.9,    0.9983
"SNW_NW11_9287_BSB005", 13.8, 1,    7953.89,   -0.1,    0.9983, 2,    7953.89, -120.1,    0.9983, 3,    7953.89,  119.9,    0.9983
"SNW_NW11_9288_BSB005", 13.8, 1,    7953.88,   -0.1,    0.9983, 2,    7953.88, -120.1,    0.9983, 3,    7953.88,  119.9,    0.9983
"SNW_NW11_9289_BSB005", 13.8, 1,    7953.87,   -0.1,    0.9983, 2,    7953.87, -120.1,    0.9983, 3,    7953.87,  119.9,    0.9983
"SNW_NW11_9313_BSB005", 13.8, 1,    7953.87,   -0.1,    0.9983, 2,    7953.87, -120.1,    0.9983, 3,    7953.87,  119.9,    0.9983
"SNW_NW11_9314_BSB005", 13.8, 1,    7953.86,   -0.1,    0.9983, 2,    7953.86, -120.1,    0.9983, 3,    7953.86,  119.9,    0.9983
"SNW_NW11_9351_BSB005", 13.8, 1,    7953.85,   -0.1,    0.9983, 2,    7953.85, -120.1,    0.9983, 3,    7953.85,  119.9,    0.9983
"SNW_NW11_9352_BSB005", 13.8, 1,    7953.85,   -0.1,    0.9983, 2,    7953.85, -120.1,    0.9983, 3,    7953.85,  119.9,    0.9983
"SNW_NW11_9389_BSB005", 13.8, 1,    7954.01,   -0.1,   0.99832, 2,    7954.01, -120.1,   0.99832, 3,    7954.01,  119.9,   0.99832
"SNW_NW11_9390_BSB005", 13.8, 1,    7954.01,   -0.1,   0.99832, 2,    7954.01, -120.1,   0.99832, 3,    7954.01,  119.9,   0.99832
"SNW_NW11_9050_BSB006", 13.8, 1,     7955.5,   -0.1,    0.9985, 2,     7955.5, -120.1,    0.9985, 3,     7955.5,  119.9,    0.9985
"SNW_NW11_9048_BSB006", 13.8, 1,    7955.63,   -0.1,   0.99852, 2,    7955.63, -120.1,   0.99852, 3,    7955.63,  119.9,   0.99852
"SNW_NW11_9043_BSB006", 13.8, 1,    7955.91,   -0.1,   0.99855, 2,    7955.91, -120.1,   0.99855, 3,    7955.91,  119.9,   0.99855
"SNW_NW11_9044_BSB006_S", 13.8, 1,    7955.83,   -0.1,   0.99854, 2,    7955.83, -120.1,   0.99854, 3,    7955.83,  119.9,   0.99854
"SNW_NW11_9042_BSB006", 13.8, 1,    7955.99,   -0.1,   0.99856, 2,    7955.99, -120.1,   0.99856, 3,    7955.99,  119.9,   0.99856
"SNW_NW11_9039_BSB006", 13.8, 1,    7956.22,   -0.1,   0.99859, 2,    7956.22, -120.1,   0.99859, 3,    7956.22,  119.9,   0.99859
"SNW_NW11_9040_BSB006", 13.8, 1,    7956.14,   -0.1,   0.99858, 2,    7956.14, -120.1,   0.99858, 3,    7956.14,  119.9,   0.99858
"SNW_NW11_9038_BSB006", 13.8, 1,     7956.3,   -0.1,    0.9986, 2,     7956.3, -120.1,    0.9986, 3,     7956.3,  119.9,    0.9986
"SNW_NW11_9037_BSB006", 13.8, 1,    7956.39,   -0.1,   0.99861, 2,    7956.39, -120.1,   0.99861, 3,    7956.39,  119.9,   0.99861
"SNW_NW11_9032_BSB006", 13.8, 1,    7956.71,   -0.1,   0.99865, 2,    7956.71, -120.1,   0.99865, 3,    7956.71,  119.9,   0.99865
"SNW_NW11_9034_BSB006", 13.8, 1,    7956.63,   -0.1,   0.99864, 2,    7956.63, -120.1,   0.99864, 3,    7956.63,  119.9,   0.99864
"SNW_NW11_9026_BSB006", 13.8, 1,     7957.2,   -0.1,   0.99872, 2,     7957.2, -120.1,   0.99872, 3,     7957.2,  119.9,   0.99872
"SNW_NW11_9019_BSB006", 13.8, 1,    7957.14,   -0.1,   0.99871, 2,    7957.14, -120.1,   0.99871, 3,    7957.14,  119.9,   0.99871
"SNW_NW11_9020_BSB006", 13.8, 1,    7957.26,   -0.1,   0.99872, 2,    7957.26, -120.1,   0.99872, 3,    7957.26,  119.9,   0.99872
"SNW_NW11_9033_BSB006", 13.8, 1,    7956.71,   -0.1,   0.99865, 2,    7956.71, -120.1,   0.99865, 3,    7956.71,  119.9,   0.99865
"SNW_NW11_9011_BSB006", 13.8, 1,    7956.25,   -0.1,    0.9986, 2,    7956.25, -120.1,    0.9986, 3,    7956.25,  119.9,    0.9986
"SNW_NW11_9012_BSB006", 13.8, 1,    7956.36,   -0.1,   0.99861, 2,    7956.36, -120.1,   0.99861, 3,    7956.36,  119.9,   0.99861
"SNW_NW11_9384_BSB005", 13.8, 1,    7954.01,   -0.1,   0.99832, 2,    7954.01, -120.1,   0.99832, 3,    7954.01,  119.9,   0.99832
"SNW_NW11_9103_BSB006_S", 13.8, 1,    7955.45,   -0.1,    0.9985, 2,    7955.45, -120.1,    0.9985, 3,    7955.45,  119.9,    0.9985
"SNW_NW11_9143_BSBRJ011_ATV", 13.8, 1,    7955.38,   -0.1,   0.99849, 2,    7955.38, -120.1,   0.99849, 3,    7955.38,  119.9,   0.99849
"SNW_NW11_9097_BSB006", 13.8, 1,    7955.31,   -0.1,   0.99848, 2,    7955.31, -120.1,   0.99848, 3,    7955.31,  119.9,   0.99848
"SNW_NW11_9015_BSB006", 13.8, 1,    7956.68,   -0.1,   0.99865, 2,    7956.68, -120.1,   0.99865, 3,    7956.68,  119.9,   0.99865
"SNW_NW11_9010_BSB005", 13.8, 1,    7954.91,   -0.1,   0.99843, 2,    7954.91, -120.1,   0.99843, 3,    7954.91,  119.9,   0.99843
"SNW_NW11_9011_BSB005", 13.8, 1,    7954.89,   -0.1,   0.99843, 2,    7954.89, -120.1,   0.99843, 3,    7954.89,  119.9,   0.99843
"SNW_NW11_9015_BSB005", 13.8, 1,    7954.79,   -0.1,   0.99841, 2,    7954.79, -120.1,   0.99841, 3,    7954.79,  119.9,   0.99841
"SNW_NW11_9016_BSB005_S", 13.8, 1,    7954.77,   -0.1,   0.99841, 2,    7954.77, -120.1,   0.99841, 3,    7954.77,  119.9,   0.99841
"SNW_NW11_9020_BSB005", 13.8, 1,    7954.68,   -0.1,    0.9984, 2,    7954.68, -120.1,    0.9984, 3,    7954.68,  119.9,    0.9984
"SNW_NW11_9021_BSB005", 13.8, 1,    7954.66,   -0.1,    0.9984, 2,    7954.66, -120.1,    0.9984, 3,    7954.66,  119.9,    0.9984
"SNW_NW11_9025_BSB005", 13.8, 1,    7954.57,   -0.1,   0.99839, 2,    7954.57, -120.1,   0.99839, 3,    7954.57,  119.9,   0.99839
"SNW_NW11_9030_BSB005", 13.8, 1,    7954.46,   -0.1,   0.99837, 2,    7954.46, -120.1,   0.99837, 3,    7954.46,  119.9,   0.99837
"SNW_NW11_9031_BSB005", 13.8, 1,    7954.44,   -0.1,   0.99837, 2,    7954.44, -120.1,   0.99837, 3,    7954.44,  119.9,   0.99837
"SNW_NW11_9039_BSB005", 13.8, 1,    7954.26,   -0.1,   0.99835, 2,    7954.26, -120.1,   0.99835, 3,    7954.26,  119.9,   0.99835
"SNW_NW11_9040_BSB005", 13.8, 1,    7954.24,   -0.1,   0.99834, 2,    7954.24, -120.1,   0.99834, 3,    7954.24,  119.9,   0.99834
"SNW_NW11_9044_BSB005", 13.8, 1,    7954.18,   -0.1,   0.99834, 2,    7954.18, -120.1,   0.99834, 3,    7954.18,  119.9,   0.99834
"SNW_NW11_9045_BSB005", 13.8, 1,    7954.18,   -0.1,   0.99834, 2,    7954.18, -120.1,   0.99834, 3,    7954.18,  119.9,   0.99834
"SNW_NW11_9226_BSB005", 13.8, 1,    7954.16,   -0.1,   0.99833, 2,    7954.16, -120.1,   0.99833, 3,    7954.16,  119.9,   0.99833
"SNW_NW11_9227_BSB005", 13.8, 1,    7954.17,   -0.1,   0.99834, 2,    7954.17, -120.1,   0.99834, 3,    7954.17,  119.9,   0.99834
"SNW_NW11_9208_BSB005", 13.8, 1,     7954.1,   -0.1,   0.99833, 2,     7954.1, -120.1,   0.99833, 3,     7954.1,  119.9,   0.99833
"SNW_NW11_9209_BSB005", 13.8, 1,    7954.12,   -0.1,   0.99833, 2,    7954.12, -120.1,   0.99833, 3,    7954.12,  119.9,   0.99833
"SNW_NW11_9049_BSB005", 13.8, 1,    7954.14,   -0.1,   0.99833, 2,    7954.14, -120.1,   0.99833, 3,    7954.14,  119.9,   0.99833
"SNW_NW11_9204_BSB005", 13.8, 1,    7954.05,   -0.1,   0.99832, 2,    7954.05, -120.1,   0.99832, 3,    7954.05,  119.9,   0.99832
"SNW_NW11_9205_BSB005", 13.8, 1,    7954.06,   -0.1,   0.99832, 2,    7954.06, -120.1,   0.99832, 3,    7954.06,  119.9,   0.99832
"SNW_NW11_9191_BSB005", 13.8, 1,    7954.02,   -0.1,   0.99832, 2,    7954.02, -120.1,   0.99832, 3,    7954.02,  119.9,   0.99832
"SNW_NW11_9200_BSB005", 13.8, 1,    7954.02,   -0.1,   0.99832, 2,    7954.02, -120.1,   0.99832, 3,    7954.02,  119.9,   0.99832
"SNW_NW11_9186_BSB005", 13.8, 1,    7954.01,   -0.1,   0.99832, 2,    7954.01, -120.1,   0.99832, 3,    7954.01,  119.9,   0.99832
"SNW_NW11_9239_BSB005", 13.8, 1,    7953.99,   -0.1,   0.99831, 2,    7953.99, -120.1,   0.99831, 3,    7953.99,  119.9,   0.99831
"SNW_NW11_9244_BSB005", 13.8, 1,    7953.94,   -0.1,   0.99831, 2,    7953.94, -120.1,   0.99831, 3,    7953.94,  119.9,   0.99831
"SNW_NW11_9389_BSB005_S", 13.8, 1,    7954.01,   -0.1,   0.99832, 2,    7954.01, -120.1,   0.99832, 3,    7954.01,  119.9,   0.99832
"SNW_NW11_9095_BSB006", 13.8, 1,    7955.27,   -0.1,   0.99847, 2,    7955.27, -120.1,   0.99847, 3,    7955.27,  119.9,   0.99847
"SNW_NW11_9096_BSB006", 13.8, 1,    7955.29,   -0.1,   0.99848, 2,    7955.29, -120.1,   0.99848, 3,    7955.29,  119.9,   0.99848
"SNW_NW11_9094_BSB006", 13.8, 1,    7955.26,   -0.1,   0.99847, 2,    7955.26, -120.1,   0.99847, 3,    7955.26,  119.9,   0.99847
"SNW_NW11_9083_BSB006_S", 13.8, 1,     7955.2,   -0.1,   0.99846, 2,     7955.2, -120.1,   0.99846, 3,     7955.2,  119.9,   0.99846
...
"NW_ALNW11", 13.8, 1,    7954.98,   -0.1,   0.99844, 2,    7954.98, -120.1,   0.99844, 3,    7954.98,  119.9,   0.99844
"SNW_NW11_11403611", 13.8, 1,    7954.98,   -0.1,   0.99844, 2,    7954.98, -120.1,   0.99844, 3,    7954.98,  119.9,   0.99844
"SNW_NW11_11403610", 13.8, 1,    7954.98,   -0.1,   0.99844, 2,    7954.98, -120.1,   0.99844, 3,    7954.98,  119.9,   0.99844
"SNW_NW11_11403609", 13.8, 1,    7954.98,   -0.1,   0.99844, 2,    7954.98, -120.1,   0.99844, 3,    7954.98,  119.9,   0.99844
"SNW_NW11_11290466", 13.8, 1,    7954.98,   -0.1,   0.99844, 2,    7954.98, -120.1,   0.99844, 3,    7954.98,  119.9,   0.99844
"SNW_NW11_931-0135-23", 13.8, 1,    7954.95,   -0.1,   0.99843, 2,    7954.95, -120.1,   0.99843, 3,    7954.95,  119.9,   0.99843
"SNW_NW11_9010_BSBRJ015_ATV_S", 13.8, 1,    7954.99,   -0.1,   0.99844, 2,    7954.99, -120.1,   0.99844, 3,    7954.99,  119.9,   0.99844
"SNW_NW11_9028_BSB006", 13.8, 1,       7957,   -0.1,   0.99869, 2,       7957, -120.1,   0.99869, 3,       7957,  119.9,   0.99869
"SNW_NW11_9029_BSB006_S", 13.8, 1,     7956.9,   -0.1,   0.99868, 2,     7956.9, -120.1,   0.99868, 3,     7956.9,  119.9,   0.99868
"SNW_NW11_9024_BSB006_S", 13.8, 1,    7957.39,   -0.1,   0.99874, 2,    7957.39, -120.1,   0.99874, 3,    7957.39,  119.9,   0.99874
"SNW_NW11_9195_BSB003_S", 13.8, 1,    7954.92,   -0.1,   0.99843, 2,    7954.92, -120.1,   0.99843, 3,    7954.92,  119.9,   0.99843
"SNW_NW11_9077_BSB006_S", 13.8, 1,    7955.22,   -0.1,   0.99847, 2,    7955.22, -120.1,   0.99847, 3,    7955.22,  119.9,   0.99847
"SNW_NW11_9235_BSB006_S", 13.8, 1,    7955.02,   -0.1,   0.99844, 2,    7955.02, -120.1,   0.99844, 3,    7955.02,  119.9,   0.99844
"SNW_NW11_9125_BSB006_S", 13.8, 1,    7954.73,   -0.1,   0.99841, 2,    7954.73, -120.1,   0.99841, 3,    7954.73,  119.9,   0.99841
"SNW_NW11_9073_BSB006_S", 13.8, 1,    7955.24,   -0.1,   0.99847, 2,    7955.24, -120.1,   0.99847, 3,    7955.24,  119.9,   0.99847
"SNW_NW11_9135_BSB006_S", 13.8, 1,    7954.67,   -0.1,    0.9984, 2,    7954.67, -120.1,    0.9984, 3,    7954.67,  119.9,    0.9984
"SNW_NW11_9189_BSB005_S", 13.8, 1,    7954.01,   -0.1,   0.99832, 2,    7954.01, -120.1,   0.99832, 3,    7954.01,  119.9,   0.99832
"SNW_NW11_9163_BSB006_S", 13.8, 1,    7955.19,   -0.1,   0.99846, 2,    7955.19, -120.1,   0.99846, 3,    7955.19,  119.9,   0.99846
"SNW_NW11_9127_BSB006_S", 13.8, 1,     7954.7,   -0.1,    0.9984, 2,     7954.7, -120.1,    0.9984, 3,     7954.7,  119.9,    0.9984
"SNW_NW11_9204_BSB003_S", 13.8, 1,     7954.9,   -0.1,   0.99843, 2,     7954.9, -120.1,   0.99843, 3,     7954.9,  119.9,   0.99843
"SNW_NW11_9026_BSB006_S", 13.8, 1,     7957.2,   -0.1,   0.99872, 2,     7957.2, -120.1,   0.99872, 3,     7957.2,  119.9,   0.99872
"SNW_NW11_9076_BSB006_S", 13.8, 1,    7955.22,   -0.1,   0.99847, 2,    7955.22, -120.1,   0.99847, 3,    7955.22,  119.9,   0.99847
"SNW_NW11_9150_BSBRJ011_ATV_S", 13.8, 1,    7955.43,   -0.1,   0.99849, 2,    7955.43, -120.1,   0.99849, 3,    7955.43,  119.9,   0.99849
"SNW_NW11_9289_BSB005_S", 13.8, 1,    7953.87,   -0.1,    0.9983, 2,    7953.87, -120.1,    0.9983, 3,    7953.87,  119.9,    0.9983
"SNW_NW11_9131_BSB006_S", 13.8, 1,    7954.66,   -0.1,    0.9984, 2,    7954.66, -120.1,    0.9984, 3,    7954.66,  119.9,    0.9984
"SNW_NW11_9164_BSB006_S", 13.8, 1,    7955.23,   -0.1,   0.99847, 2,    7955.23, -120.1,   0.99847, 3,    7955.23,  119.9,   0.99847
"SNW_NW11_9098_BSB006_S", 13.8, 1,    7955.33,   -0.1,   0.99848, 2,    7955.33, -120.1,   0.99848, 3,    7955.33,  119.9,   0.99848
"SNW_NW11_9138_BSB006_S", 13.8, 1,    7954.68,   -0.1,    0.9984, 2,    7954.68, -120.1,    0.9984, 3,    7954.68,  119.9,    0.9984
"SNW_NW11_9146_BSB006_S", 13.8, 1,    7954.77,   -0.1,   0.99841, 2,    7954.77, -120.1,   0.99841, 3,    7954.77,  119.9,   0.99841
"SNW_NW11_9117_BSB006_S", 13.8, 1,    7955.06,   -0.1,   0.99845, 2,    7955.06, -120.1,   0.99845, 3,    7955.06,  119.9,   0.99845
"SNW_NW11_9059_BSB005_S", 13.8, 1,    7954.09,   -0.1,   0.99833, 2,    7954.09, -120.1,   0.99833, 3,    7954.09,  119.9,   0.99833
"NW_BA2-13", 13.8, 2,    7954.98, -120.1,   0.99844, 3,    7954.98,  119.9,   0.99844, 8,    7954.98,   -0.1,   0.99844
"SNW_NW11_9167_BSB006_S", 13.8, 1,    7955.26,   -0.1,   0.99847, 2,    7955.26, -120.1,   0.99847, 3,    7955.26,  119.9,   0.99847
"SNW_NW11_9031_BSB006_S", 13.8, 1,     7956.8,   -0.1,   0.99867, 2,     7956.8, -120.1,   0.99867, 3,     7956.8,  119.9,   0.99867
"SNW_NW11_9315_BSB005_S", 13.8, 1,    7953.86,   -0.1,    0.9983, 2,    7953.86, -120.1,    0.9983, 3,    7953.86,  119.9,    0.9983
"SNW_NW11_9050_BSB005_S", 13.8, 1,    7954.14,   -0.1,   0.99833, 2,    7954.14, -120.1,   0.99833, 3,    7954.14,  119.9,   0.99833
"SNW_NW11_9023_BSBRJ015_ATV_S", 13.8, 1,    7954.98,   -0.1,   0.99844, 2,    7954.98, -120.1,   0.99844, 3,    7954.98,  119.9,   0.99844
"SNW_NW11_9104_BSB006_S", 13.8, 1,    7955.47,   -0.1,    0.9985, 2,    7955.47, -120.1,    0.9985, 3,    7955.47,  119.9,    0.9985
"SNW_NW11_9214_BSB003_S", 13.8, 1,     7954.9,   -0.1,   0.99843, 2,     7954.9, -120.1,   0.99843, 3,     7954.9,  119.9,   0.99843
"SNW_NW11_9153_BSB006_S", 13.8, 1,    7954.89,   -0.1,   0.99843, 2,    7954.89, -120.1,   0.99843, 3,    7954.89,  119.9,   0.99843
"SNW_NW11_9025_BSB006_S", 13.8, 1,    7957.29,   -0.1,   0.99873, 2,    7957.29, -120.1,   0.99873, 3,    7957.29,  119.9,   0.99873
"SNW_NW11_9023_BSB006_BT_FP8852", 0.38, 1,    214.973,   -1.3,   0.97985, 2,    214.973, -121.3,   0.97985, 3,    214.973,  118.7,   0.97985
"SNW_NW11_9067_BSB005_BT_FT9916", 0.38, 1,    214.869,   -1.4,   0.97938, 2,    214.869, -121.4,   0.97938, 3,    214.869,  118.6,   0.97938
"SNW_NW11_9079_BSB006_BT_FT9962", 0.38, 1,    214.902,   -1.4,   0.97953, 2,    214.902, -121.4,   0.97953, 3,    214.902,  118.6,   0.97953
"SNW_NW11_9009_BSB006_BT_FT9966", 0.38, 1,    214.925,   -1.4,   0.97964, 2,    214.925, -121.4,   0.97964, 3,    214.925,  118.6,   0.97964
"SNW_NW11_9035_BSB006_BT_FT9970", 0.38, 1,     214.94,   -1.4,    0.9797, 2,     214.94, -121.4,    0.9797, 3,     214.94,  118.6,    0.9797
"SNW_NW11_9072_BSB006_BT_FT9964", 0.38, 1,    214.903,   -1.4,   0.97954, 2,    214.903, -121.4,   0.97954, 3,    214.903,  118.6,   0.97954
"SNW_NW11_9015_BSB005_BT_FT6333", 0.38, 1,    214.891,   -1.4,   0.97948, 2,    214.891, -121.4,   0.97948, 3,    214.891,  118.6,   0.97948
"SNW_NW11_9016_BSB006_BT_FT9967", 0.38, 1,    214.947,   -1.4,   0.97973, 2,    214.947, -121.4,   0.97973, 3,    214.947,  118.6,   0.97973
"SNW_NW11_9086_BSB006_BT_FT9961", 0.38, 1,    214.902,   -1.4,   0.97953, 2,    214.902, -121.4,   0.97953, 3,    214.902,  118.6,   0.97953
"SNW_NW11_9033_BSB006_BT_FP7529", 0.38, 1,    214.944,   -1.4,   0.97972, 2,    214.944, -121.4,   0.97972, 3,    214.944,  118.6,   0.97972
"SNW_NW11_9025_BSB006_BT_FT9968", 0.38, 1,    214.961,   -1.3,    0.9798, 2,    214.961, -121.3,    0.9798, 3,    214.961,  118.7,    0.9798
"SNW_NW11_9121_BSB006_BT_FT9951", 0.38, 1,    214.894,   -1.4,   0.97949, 2,    214.894, -121.4,   0.97949, 3,    214.894,  118.6,   0.97949
"SNW_NW11_9131_BSB006_BT_FT9952", 0.38, 1,    214.887,   -1.4,   0.97946, 2,    214.887, -121.4,   0.97946, 3,    214.887,  118.6,   0.97946
"SNW_NW11_9146_BSB006_BT_FT9955", 0.38, 1,     214.89,   -1.4,   0.97947, 2,     214.89, -121.4,   0.97947, 3,     214.89,  118.6,   0.97947
"SNW_NW11_9031_BSB005_BT_FT0078", 0.38, 1,    214.881,   -1.4,   0.97943, 2,    214.881, -121.4,   0.97943, 3,    214.881,  118.6,   0.97943
"SNW_NW11_9031_BSB006_BT_FT9969", 0.38, 1,    214.947,   -1.4,   0.97974, 2,    214.947, -121.4,   0.97974, 3,    214.947,  118.6,   0.97974
"SNW_NW11_9095_BSB006_BT_FT9959", 0.38, 1,    214.904,   -1.4,   0.97954, 2,    214.904, -121.4,   0.97954, 3,    214.904,  118.6,   0.97954
"SNW_NW11_9041_BSB006_BT_FT9971", 0.38, 1,    214.926,   -1.4,   0.97964, 2,    214.926, -121.4,   0.97964, 3,    214.926,  118.6,   0.97964
"SNW_NW11_9353_BSB005_BT_FT9914", 0.38, 1,    214.864,   -1.4,   0.97936, 2,    214.864, -121.4,   0.97936, 3,    214.864,  118.6,   0.97936
"SNW_NW11_9101_BSB006_BT_FT9958", 0.38, 1,    214.908,   -1.4,   0.97956, 2,    214.908, -121.4,   0.97956, 3,    214.908,  118.6,   0.97956
"SNW_NW11_9279_BSB004_BT_FP8048", 0.38, 1,    214.894,   -1.4,   0.97949, 2,    214.894, -121.4,   0.97949, 3,    214.894,  118.6,   0.97949
"SNW_NW11_9315_BSB005_BT_FT9913", 0.38, 1,    214.864,   -1.4,   0.97936, 2,    214.864, -121.4,   0.97936, 3,    214.864,  118.6,   0.97936
"SNW_NW11_9382_BSB005_BT_FP3368", 0.38, 1,    214.868,   -1.4,   0.97938, 2,    214.868, -121.4,   0.97938, 3,    214.868,  118.6,   0.97938
"SNW_NW11_9399_BSB005_BT_FP3369", 0.38, 1,    214.869,   -1.4,   0.97938, 2,    214.869, -121.4,   0.97938, 3,    214.869,  118.6,   0.97938
"SNW_NW11_9055_BSB005_BT_FT9915", 0.38, 1,    214.871,   -1.4,   0.97939, 2,    214.871, -121.4,   0.97939, 3,    214.871,  118.6,   0.97939
"SNW_NW11_9127_BSB006_BT_FZ2779", 0.38, 1,    214.888,   -1.4,   0.97947, 2,    214.888, -121.4,   0.97947, 3,    214.888,  118.6,   0.97947
"SNW_NW11_9086_BSB005_BT_FZ1420", 0.38, 1,    214.869,   -1.4,   0.97938, 2,    214.869, -121.4,   0.97938, 3,    214.869,  118.6,   0.97938
"SNW_NW11_9088_BSB006_BT_FP8190", 0.38, 1,    214.902,   -1.4,   0.97953, 2,    214.902, -121.4,   0.97953, 3,    214.902,  118.6,   0.97953
"SNW_NW11_9090_BSB006_BT_FP5667", 0.38, 1,    214.902,   -1.4,   0.97953, 2,    214.902, -121.4,   0.97953, 3,    214.902,  118.6,   0.97953
"SNW_NW11_9094_BSBRJ015_ATV_BT_FX4456", 0.38, 1,    214.896,   -1.4,    0.9795, 2,    214.896, -121.4,    0.9795, 3,    214.896,  118.6,    0.9795
"SNW_NW11_9126_BSB006_BT_FP8653", 0.38, 1,    214.889,   -1.4,   0.97947, 2,    214.889, -121.4,   0.97947, 3,    214.889,  118.6,   0.97947
"SNW_NW11_9138_BSB006_BT_FT9953", 0.38, 1,    214.887,   -1.4,   0.97946, 2,    214.887, -121.4,   0.97946, 3,    214.887,  118.6,   0.97946
"SNW_NW11_9289_BSB005_BT_FT9912", 0.38, 1,    214.865,   -1.4,   0.97936, 2,    214.865, -121.4,   0.97936, 3,    214.865,  118.6,   0.97936
"SNW_NW11_9153_BSB006_BT_FZ0762", 0.38, 1,    214.893,   -1.4,   0.97949, 2,    214.893, -121.4,   0.97949, 3,    214.893,  118.6,   0.97949
"SNW_NW11_9161_BSB006_BT_FT9957", 0.38, 1,      214.9,   -1.4,   0.97952, 2,      214.9, -121.4,   0.97952, 3,      214.9,  118.6,   0.97952
"SNW_NW11_9048_BSB006_BT_FT9972", 0.38, 1,    214.914,   -1.4,   0.97958, 2,    214.914, -121.4,   0.97958, 3,    214.914,  118.6,   0.97958
"SNW_NW11_9244_BSB005_BT_FT9911", 0.38, 1,    214.867,   -1.4,   0.97937, 2,    214.867, -121.4,   0.97937, 3,    214.867,  118.6,   0.97937
"SNW_NW11_9150_BSB006_BT_FP7718", 0.38, 1,    214.891,   -1.4,   0.97948, 2,    214.891, -121.4,   0.97948, 3,    214.891,  118.6,   0.97948
"SNW_NW11_9066_BSB006_BT_FT9965", 0.38, 1,    214.905,   -1.4,   0.97954, 2,    214.905, -121.4,   0.97954, 3,    214.905,  118.6,   0.97954
"SNW_NW11_9030_BSB006_BT_FP0028", 0.38, 1,     214.95,   -1.3,   0.97975, 2,     214.95, -121.3,   0.97975, 3,     214.95,  118.7,   0.97975
"SNW_NW11_9045_BSB006_BT_FP8063", 0.38, 1,    214.919,   -1.4,   0.97961, 2,    214.919, -121.4,   0.97961, 3,    214.919,  118.6,   0.97961
"SNW_NW11_9136_BSB006_BT_FP7950", 0.38, 1,    214.887,   -1.4,   0.97946, 2,    214.887, -121.4,   0.97946, 3,    214.887,  118.6,   0.97946
"SNW_NW11_9065_BSB006_BT_FP4125", 0.38, 1,    214.905,   -1.4,   0.97954, 2,    214.905, -121.4,   0.97954, 3,    214.905,  118.6,   0.97954
"SNW_NW11_9120_BSB006_BT_FP3450", 0.38, 1,    214.895,   -1.4,    0.9795, 2,    214.895, -121.4,    0.9795, 3,    214.895,  118.6,    0.9795
"SNW_NW11_9129_BSB006_BT_FP7288", 0.38, 1,    208.133,   -3.3,   0.94868, 2,    208.133, -123.3,   0.94868, 3,    208.133,  116.7,   0.94868
"SNW_NW11_9136_BSBRJ011_ATV_BT_FP3387", 0.38, 1,    214.907,   -1.4,   0.97955, 2,    214.907, -121.4,   0.97955, 3,    214.907,  118.6,   0.97955
"SNW_NW11_9140_BSB006_BT_FF2999", 0.38, 1,    214.888,   -1.4,   0.97946, 2,    214.888, -121.4,   0.97946, 3,    214.888,  118.6,   0.97946
"SNW_NW11_9143_BSBRJ011_ATV_BT_FP3388", 0.38, 1,    214.907,   -1.4,   0.97955, 2,    214.907, -121.4,   0.97955, 3,    214.907,  118.6,   0.97955
"SNW_NW11_9157_BSB006_BT_FP4470", 0.38, 1,    214.895,   -1.4,    0.9795, 2,    214.895, -121.4,    0.9795, 3,    214.895,  118.6,    0.9795
"SNW_NW11_9183_BSB005_BT_FT0077", 0.38, 1,    214.869,   -1.4,   0.97938, 2,    214.869, -121.4,   0.97938, 3,    214.869,  118.6,   0.97938
"SNW_NW11_9201_BSB005_BT_FT9910", 0.38, 1,    214.869,   -1.4,   0.97938, 2,    214.869, -121.4,   0.97938, 3,    214.869,  118.6,   0.97938
